15
	Energy:    -378.5461338
N         -0.90795        1.40345        0.26827
H         -1.79130        1.50390       -0.23035
H         -1.10854        1.51069        1.26342
C         -0.27603        0.11240       -0.01460
H         -0.46850       -0.14647       -1.07031
H         -0.66850       -0.72828        0.58286
C          1.24727        0.04539        0.16681
O          1.76889       -1.04060        0.39611
N          1.97174        1.19275        0.04042
H          0.45488        2.30573       -0.22814
C          3.40998        1.19524       -0.04594
H          3.75549        0.18285        0.19534
H          3.72659        1.47014       -1.06722
H          3.84171        1.92240        0.66131
O          1.43829        2.41738       -0.37898
